Version 4
SHEET 1 880 680
WIRE 160 112 16 112
WIRE 336 112 256 112
WIRE 496 112 336 112
WIRE 336 128 336 112
WIRE 496 128 496 112
WIRE 16 144 16 112
WIRE 240 192 240 160
WIRE 336 192 240 192
WIRE 240 208 240 192
WIRE 496 224 496 208
WIRE 16 240 16 224
WIRE 240 304 240 288
FLAG 496 224 0
FLAG 16 240 0
FLAG 240 304 0
SYMBOL AutoGenerated\\BS250P 160 160 R270
SYMATTR InstName U1
SYMBOL voltage 16 128 R0
WINDOW 123 0 0 Left 0
WINDOW 39 0 0 Left 0
SYMATTR InstName V1
SYMATTR Value 40
SYMBOL res 480 112 R0
SYMATTR InstName R1
SYMATTR Value 10
SYMBOL res 224 192 R0
SYMATTR InstName R2
SYMATTR Value 5k
SYMBOL zener 352 192 R180
WINDOW 0 24 64 Left 2
WINDOW 3 -205 -108 Left 2
SYMATTR InstName D1
SYMATTR Value MMBZ6V8ALY
SYMATTR Description Diode
SYMATTR Type diode
TEXT -16 264 Left 2 !.tran 10m
